LTspice 26.0.2 for Windows
Circuit: C:\Users\Syauqi Ooi\Documents\Github\Glycolysis\step_1\n555.net
Start Time: Wed Jun 10 14:47:05 2026
solver = Normal
Maximum thread count: 12
tnom = 27
temp = 27
method = trap
C:\Users\Syauqi Ooi\Documents\Github\Glycolysis\step_1\n555.net(9): WARNING: Ncycles must be a positive number, will be ignored (using default = infinity).

V2 input 0 PULSE(0 5 2 0.00001 0 8 10 0)
^^^^^^^^^^^^^^^^^^^^^^^^^^^^^^^^^^^^^^^^
C:\Users\Syauqi Ooi\Documents\Github\Glycolysis\step_1\n555.net(9): Limiting fall time to 0.199999.

V2 input 0 PULSE(0 5 2 0.00001 0 8 10 0)
^^^^^^^^^^^^^^^^^^^^^^^^^^^^^^^^^^^^^^^^
Direct Newton iteration succeeded in finding operating point.
Total elapsed time: 0.127 seconds.

Files loaded:
C:\Users\Syauqi Ooi\Documents\Github\Glycolysis\step_1\n555.net
C:\Users\Syauqi Ooi\AppData\Local\LTspice\lib\cmp\standard.bjt
C:\Users\Syauqi Ooi\AppData\Local\LTspice\lib\sub\NE555.sub

